/*--------------------------------*- C++ -*----------------------------------*\
| =========                 |                                                 |
| \\      /  F ield         | OpenFOAM Extend Project: Open source CFD        |
|  \\    /   O peration     | Version:  1.6-ext                               |
|   \\  /    A nd           | Web:      www.extend-project.de                 |
|    \\/     M anipulation  |                                                 |
\*---------------------------------------------------------------------------*/
FoamFile
{
    version     2.0;
    format      ascii;
    class       dictionary;
    location    "system";
    object      controlDict;
}
// * * * * * * * * * * * * * * * * * * * * * * * * * * * * * * * * * * * * * //

application     craftsFoam;

startFrom       startTime;

startTime       0;

stopAt          endTime;

endTime         8640000;

timeFormat      scientific;

deltaT          0.0005;

writeControl    timeStep;

writeInterval   1;

purgeWrite      0;

writeFormat     ascii;

writePrecision  16;

writeCompression uncompressed;

runTimeModifiable yes;

outputEquations yes;

outputEquationDataSources no;

libs
3
(
    "libcraftsUdfs.so"
    "libcraftsFlowSolvers.so"
    "libOpenFOAM.so"
);

timePrecision   12;


// ************************************************************************* //
