/*--------------------------------*- C++ -*----------------------------------*\
| =========                 |                                                 |
| \\      /  F ield         | OpenFOAM: The Open Source CFD Toolbox           |
|  \\    /   O peration     | Version:  1.5                                   |
|   \\  /    A nd           | Web:      http://www.OpenFOAM.org               |
|    \\/     M anipulation  |                                                 |
\*---------------------------------------------------------------------------*/
FoamFile
{
    version     2.0;
    format      ascii;
    class       dictionary;
    object      gasModel;
}
// * * * * * * * * * * * * * * * * * * * * * * * * * * * * * * * * * * * * * //

T               T [0 0 0 1 0 0 0] 308.15;

Q               Q [0 3 -1 0 0 0 0] 0;

p_total         p_total [1 -1 -2 0 0 0 0] 101301.749984787;

p_atm           p_atm [1 -1 -2 0 0 0 0] 101325;

p_ch4           p_ch4 [1 -1 -2 0 0 0 0] 60461.8676281641;

p_co2           p_co2 [1 -1 -2 0 0 0 0] 35270.04996705;

p_h2            p_h2 [1 -1 -2 0 0 0 0] 3.0578820743625;

p_gas_h2o       p_h2o [1 -1 -2 0 0 0 0] 5566.7745074990079956;

Sg_ch4          Sg_ch4 [1 -3 0 0 0 0 0] 1.5103;

Sg_co2          Sg_co2 [0 -3 0 0 1 0 0] 13.766;

Sg_h2           Sg_h2 [1 -3 0 0 0 0 0] 0.000019096;

// ************************************************************************* //
