/*--------------------------------*- C++ -*----------------------------------*\
| =========                 |                                                 |
| \\      /  F ield         | OpenFOAM: The Open Source CFD Toolbox           |
|  \\    /   O peration     | Version:  1.5                                   |
|   \\  /    A nd           | Web:      http://www.OpenFOAM.org               |
|    \\/     M anipulation  |                                                 |
\*---------------------------------------------------------------------------*/
FoamFile
{
    version     2.0;
    format      ascii;
    class       volScalarField;
    object      S_ic;
}
// * * * * * * * * * * * * * * * * * * * * * * * * * * * * * * * * * * * * * //

#includeIfPresent "../constant/universalBoundaryConditions"
#includeIfPresent "../../../../constant/universalBoundaryConditions"

dimensions      [0 -3 0 0 1 0 0];

internalField   uniform $initS_ic;

boundaryField
{
    inlet
    {
        type            fixedValue;
        value           uniform $inletS_ic;
    }
    outlet
    {
        type            zeroGradient;
    }
    heater
    {
        type            zeroGradient;
    }
    north
    {
        type            zeroGradient;
    }
    west
    {
        type            zeroGradient;
    }
    east
    {
        type            zeroGradient;
    }
    southwest
    {
        type            zeroGradient;
    }
    southeast
    {
        type            zeroGradient;
    }
    front
    {
        type            empty;
    }
    back
    {
        type            empty;
    }
}

// ************************************************************************* //
