/*--------------------------------*- C++ -*----------------------------------*\
| =========                 |                                                 |
| \\      /  F ield         | OpenFOAM Extend Project: Open source CFD        |
|  \\    /   O peration     | Version:  1.6-ext                               |
|   \\  /    A nd           | Web:      www.extend-project.de                 |
|    \\/     M anipulation  |                                                 |
\*---------------------------------------------------------------------------*/
FoamFile
{
    version     2.0;
    format      ascii;
    class       dictionary;
    location    "constant";
    object      transportProperties;
}
// * * * * * * * * * * * * * * * * * * * * * * * * * * * * * * * * * * * * * //

transportModel  Newtonian;

nu              nu [ 0 2 -1 0 0 0 0 ] 1.568e-05;

beta            beta [ 0 0 0 -1 0 0 0 ] 0.003315;

TRef            TRef [ 0 0 0 1 0 0 0 ] 303.15;

Pr              Pr [ 0 0 0 0 0 0 0 ] 0.712;

Prt             Prt [ 0 0 0 0 0 0 0 ] 0.85;


// ************************************************************************* //
